<?xml version="1.0" encoding="UTF-8"?>

<!-- generated on 2022-10-16 21:00:59 by Eclipse SUMO polyconvert Version 1.14.1
<configuration xmlns:xsi="http://www.w3.org/2001/XMLSchema-instance" xsi:noNamespaceSchemaLocation="http://sumo.dlr.de/xsd/polyconvertConfiguration.xsd">

    <input>
        <net-file value="test.net.xml"/>
        <osm-files value="telkom.map.osm"/>
        <type-file value="typemap.xml"/>
    </input>

    <output>
        <output-file value="map.poly.xml"/>
    </output>

    <report>
        <xml-validation value="never"/>
    </report>

</configuration>
-->

<additional xmlns:xsi="http://www.w3.org/2001/XMLSchema-instance" xsi:noNamespaceSchemaLocation="http://sumo.dlr.de/xsd/additional_file.xsd">
    <location netOffset="-784188.31,760477.28" convBoundary="-39.21,-92.36,358.25,684.68" origBoundary="107.571091,-6.873858,107.574669,-6.866844" projParameter="+proj=utm +zone=48 +ellps=WGS84 +datum=WGS84 +units=m +no_defs"/>

    <poly id="154080971" type="unknown" color="51,128,255" fill="1" layer="-1.00" shape="51.624895,456.448142 167.214166,433.197443 339.286015,381.590831 315.378617,77.840542 334.343166,75.381488 321.536180,21.880684 319.584063,-22.338956 310.067037,-31.682643 298.150431,-92.358888 196.003057,-82.812838 154.424053,-65.647436 153.144113,-81.553206 106.017380,-80.093607 101.274641,-79.780394 58.436738,-47.868646 49.215887,-51.503992 38.765036,-63.819391 -39.205825,13.805832 10.447723,311.751503 43.470754,385.825675 51.624895,456.448142"/>
    <poly id="494049749" type="unknown" color="51,128,255" fill="0" layer="-1.00" shape="327.137278,127.662066 328.315321,149.289436 330.056704,168.733807 332.249277,183.649824 346.692469,249.380654 347.157627,253.616367 347.259445,258.152812 345.190682,286.813390 346.501516,304.345689 348.814306,318.995481 351.379515,327.115073 357.490582,346.790458 358.247084,351.732818 358.125041,355.772505 357.808219,360.609979 356.334482,366.250417 354.412728,370.842009 350.385657,376.739628 345.430447,380.738913 338.095873,384.441152 292.252634,398.442511 241.354325,412.271812 207.712704,422.743879 177.462638,432.533741 168.022074,435.362002 135.843090,446.357310 114.603107,451.417867 71.193169,461.355827 67.553907,463.278699 64.656315,465.330376 60.615595,468.693959 58.178258,474.073972 56.184231,481.686898 57.024115,489.804692 61.405272,502.462577 63.577834,509.555158 68.307002,516.999176 74.241609,524.436718 104.366190,557.151415 113.326054,571.887208 116.307482,579.263155 120.715348,594.831210 133.259478,632.398661 138.463781,647.995635 145.173250,667.911259 150.815164,684.678861"/>
    <poly id="494321500" type="unknown" color="51,128,255" fill="0" layer="-1.00" shape="141.030397,0.000648 143.001764,84.853829 144.987713,170.370880 145.289331,189.446734 144.351958,222.859485"/>
    <poly id="494321501" type="unknown" color="51,128,255" fill="0" layer="-1.00" shape="225.823443,61.966969 224.435252,124.640215 222.322132,188.246885 222.068132,202.711287 220.244801,227.663464 178.627524,225.419545 144.351958,222.859485 99.421116,223.455103 97.829511,223.629644 96.362708,224.390004 95.626512,225.279226 95.279702,226.597922 96.193292,250.484109 167.738143,246.746598 170.566632,291.503709 218.969203,292.781643 313.700162,292.139445"/>
    <poly id="494321504" type="unknown" color="51,128,255" fill="0" layer="-1.00" shape="170.566632,291.503709 171.595821,367.752756 173.580687,403.706008 175.955082,421.597746 177.462638,432.533741"/>
    <poly id="521702916" type="unknown" color="51,128,255" fill="1" layer="-1.00" shape="212.679444,217.235871 212.871755,193.354785 157.528565,192.921999 157.336169,216.792010 212.679444,217.235871"/>
    <poly id="521702918" type="unknown" color="51,128,255" fill="1" layer="-1.00" shape="240.095760,248.128095 280.435277,249.261196 281.104886,225.709506 240.765328,224.565347 240.095760,248.128095"/>
    <poly id="521702919" type="unknown" color="51,128,255" fill="1" layer="-1.00" shape="157.738963,304.065976 157.465726,263.522277 105.079524,263.870251 105.352780,304.425002 157.738963,304.065976"/>
    <poly id="521702920" type="unknown" color="51,128,255" fill="1" layer="-1.00" shape="245.273971,285.602342 244.789485,263.373698 186.380844,264.639403 186.865245,286.856972 245.273971,285.602342"/>
    <poly id="521702921" type="unknown" color="51,128,255" fill="1" layer="-1.00" shape="222.122634,330.089720 262.466007,329.872805 262.329690,304.521724 221.986336,304.738645 222.122634,330.089720"/>
    <poly id="521702922" type="unknown" color="51,128,255" fill="1" layer="-1.00" shape="182.851994,328.242593 206.998441,326.906612 205.701850,303.786008 181.566473,305.121934 182.851994,328.242593"/>
    <poly id="521702923" type="unknown" color="51,128,255" fill="1" layer="-1.00" shape="145.720222,366.309421 162.571879,365.787280 161.852703,343.095147 145.001054,343.617290 145.720222,366.309421"/>
    <poly id="521702924" type="unknown" color="51,128,255" fill="1" layer="-1.00" shape="191.496248,358.328362 192.037287,374.625412 180.482252,374.997367 181.236749,398.087683 212.695164,397.066514 210.578909,332.564131 175.770122,333.691849 176.601922,358.817861 191.496248,358.328362"/>
    <poly id="521702925" type="unknown" color="51,128,255" fill="1" layer="-1.00" shape="230.922503,397.344765 268.600697,397.142193 268.475575,373.871427 230.797397,374.074005 230.922503,397.344765"/>
    <poly id="530954323" type="unknown" color="51,128,255" fill="1" layer="-1.00" shape="39.200383,350.559745 39.049943,374.020074 88.885101,374.338797 89.035519,350.878460 39.200383,350.559745"/>
    <poly id="530954324" type="unknown" color="51,128,255" fill="1" layer="-1.00" shape="37.687212,315.931886 37.534637,338.993856 87.966949,339.309359 88.108503,316.258505 37.687212,315.931886"/>
    <poly id="530954325" type="unknown" color="51,128,255" fill="1" layer="-1.00" shape="17.984637,279.841478 18.408613,305.235234 93.174120,303.992490 92.727930,278.587775 17.984637,279.841478"/>
    <poly id="575440937" type="unknown" color="51,128,255" fill="0" layer="-1.00" shape="0.002641,257.286379 96.193292,250.484109"/>
    <poly id="575440947" type="unknown" color="51,128,255" fill="0" layer="-1.00" shape="167.738143,246.746598 217.551809,243.081574 218.491528,243.021192 219.031576,242.675247 219.614431,242.063493 219.797556,241.155111 220.244801,227.663464"/>
    <poly id="575440948" type="unknown" color="51,128,255" fill="0" layer="-1.00" shape="103.991148,370.030481 101.764952,369.422758 100.344400,368.500863 99.539349,366.867448 99.362522,364.832288 96.193292,250.484109"/>
    <poly id="575440949" type="unknown" color="51,128,255" fill="0" layer="-1.00" shape="171.595821,367.752756 103.991148,370.030481"/>
    <poly id="575440950" type="unknown" color="51,128,255" fill="0" layer="-1.00" shape="173.580687,403.706008 217.249664,402.873720 218.742101,402.766105 219.998966,402.040070 220.568505,401.007886 220.870663,399.611968 218.969203,292.781643"/>
    <poly id="857237179" type="unknown" color="51,128,255" fill="1" layer="-1.00" shape="51.172856,442.297397 124.784924,440.407995 124.209841,417.770422 50.586626,419.637764 51.172856,442.297397"/>
    <poly id="857237180" type="unknown" color="51,128,255" fill="1" layer="-1.00" shape="126.131213,435.742051 150.326339,435.224723 149.943356,417.466141 125.748238,417.983471 126.131213,435.742051"/>
    <poly id="857237181" type="unknown" color="51,128,255" fill="1" layer="-1.00" shape="84.501622,416.821883 141.907409,416.192496 141.535645,382.001112 84.129895,382.630512 84.501622,416.821883"/>
    <poly id="857237182" type="unknown" color="51,128,255" fill="1" layer="-1.00" shape="156.612159,386.600924 163.258287,386.498808 163.102373,376.009248 156.456246,376.111364 156.612159,386.600924"/>
    <poly id="857237183" type="unknown" color="51,128,255" fill="1" layer="-1.00" shape="117.139562,361.582998 141.669159,361.572892 141.665912,336.276446 117.136326,336.286556 117.139562,361.582998"/>
    <poi id="4860959689" type="unknown" color="51,128,255" layer="4.00" x="175.96" y="421.60"/>
    <poi id="6442492579" type="unknown" color="51,128,255" layer="4.00" x="328.32" y="149.29"/>
    <poi id="8984503291" type="unknown" color="51,128,255" layer="4.00" x="150.82" y="684.68"/>
</additional>
