<configuration xsi:noNamespaceSchemaLocation="http://sumo.dlr.de/xsd/sumoConfiguration.xsd">
	<input>
		<net-file value="polban1.net.xml"/>
		<route-files value="trips.trips.xml"/>
		<additional-files value="map.poly.xml"/>
	</input>
	<time>
		<begin value="0"/>
		<end value="10000"/>
	</time>
</configuration>