<?xml version="1.0" encoding="UTF-8"?>

<!-- generated on 2022-10-16 20:55:50 by Eclipse SUMO netconvert Version 1.14.1
<configuration xmlns:xsi="http://www.w3.org/2001/XMLSchema-instance" xsi:noNamespaceSchemaLocation="http://sumo.dlr.de/xsd/netconvertConfiguration.xsd">

    <input>
        <type-files value="osmNetconvert.typ.xml"/>
        <osm-files value="telkom.map.osm"/>
    </input>

    <output>
        <output-file value="test.net.xml"/>
    </output>

    <projection>
        <proj.utm value="true"/>
    </projection>

    <report>
        <xml-validation value="never"/>
    </report>

</configuration>
-->

<net version="1.9" junctionCornerDetail="5" limitTurnSpeed="5.50" xmlns:xsi="http://www.w3.org/2001/XMLSchema-instance" xsi:noNamespaceSchemaLocation="http://sumo.dlr.de/xsd/net_file.xsd">

    <location netOffset="-784188.31,760477.28" convBoundary="0.00,0.00,358.24,684.68" origBoundary="107.571434,-6.873031,107.574669,-6.866844" projParameter="+proj=utm +zone=48 +ellps=WGS84 +datum=WGS84 +units=m +no_defs"/>

    <type id="highway.bridleway" priority="1" numLanes="1" speed="2.78" allow="pedestrian" oneway="1" width="2.00"/>
    <type id="highway.bus_guideway" priority="1" numLanes="1" speed="27.78" allow="bus" oneway="1"/>
    <type id="highway.cycleway" priority="1" numLanes="1" speed="5.56" allow="bicycle" oneway="0" width="1.00"/>
    <type id="highway.footway" priority="1" numLanes="1" speed="2.78" allow="pedestrian" oneway="1" width="2.00"/>
    <type id="highway.ford" priority="1" numLanes="1" speed="2.78" allow="army" oneway="0"/>
    <type id="highway.living_street" priority="2" numLanes="1" speed="2.78" disallow="tram rail_urban rail rail_electric rail_fast ship" oneway="0"/>
    <type id="highway.motorway" priority="14" numLanes="2" speed="39.44" allow="private emergency authority army vip passenger hov taxi bus coach delivery truck trailer motorcycle evehicle custom1 custom2" oneway="1"/>
    <type id="highway.motorway_link" priority="9" numLanes="1" speed="22.22" allow="private emergency authority army vip passenger hov taxi bus coach delivery truck trailer motorcycle evehicle custom1 custom2" oneway="1"/>
    <type id="highway.path" priority="1" numLanes="1" speed="5.56" allow="pedestrian bicycle" oneway="0" width="2.00"/>
    <type id="highway.pedestrian" priority="1" numLanes="1" speed="2.78" allow="pedestrian" oneway="1" width="2.00"/>
    <type id="highway.primary" priority="12" numLanes="2" speed="27.78" disallow="tram rail_urban rail rail_electric rail_fast ship" oneway="0"/>
    <type id="highway.primary_link" priority="7" numLanes="1" speed="22.22" disallow="tram rail_urban rail rail_electric rail_fast ship" oneway="0"/>
    <type id="highway.raceway" priority="15" numLanes="2" speed="83.33" allow="vip" oneway="0"/>
    <type id="highway.residential" priority="3" numLanes="1" speed="13.89" disallow="tram rail_urban rail rail_electric rail_fast ship" oneway="0"/>
    <type id="highway.secondary" priority="11" numLanes="1" speed="27.78" disallow="tram rail_urban rail rail_electric rail_fast ship" oneway="0"/>
    <type id="highway.secondary_link" priority="6" numLanes="1" speed="22.22" disallow="tram rail_urban rail rail_electric rail_fast ship" oneway="0"/>
    <type id="highway.service" priority="1" numLanes="1" speed="5.56" allow="pedestrian delivery bicycle" oneway="0"/>
    <type id="highway.stairs" priority="1" numLanes="1" speed="1.39" allow="pedestrian" oneway="1" width="2.00"/>
    <type id="highway.step" priority="1" numLanes="1" speed="1.39" allow="pedestrian" oneway="1" width="2.00"/>
    <type id="highway.steps" priority="1" numLanes="1" speed="1.39" allow="pedestrian" oneway="1" width="2.00"/>
    <type id="highway.tertiary" priority="10" numLanes="1" speed="22.22" disallow="tram rail_urban rail rail_electric rail_fast ship" oneway="0"/>
    <type id="highway.tertiary_link" priority="5" numLanes="1" speed="22.22" disallow="tram rail_urban rail rail_electric rail_fast ship" oneway="0"/>
    <type id="highway.track" priority="1" numLanes="1" speed="5.56" allow="pedestrian motorcycle moped bicycle" oneway="0"/>
    <type id="highway.trunk" priority="13" numLanes="2" speed="27.78" disallow="pedestrian bicycle tram rail_urban rail rail_electric rail_fast ship" oneway="0"/>
    <type id="highway.trunk_link" priority="8" numLanes="1" speed="22.22" disallow="pedestrian bicycle tram rail_urban rail rail_electric rail_fast ship" oneway="0"/>
    <type id="highway.unclassified" priority="4" numLanes="1" speed="13.89" disallow="tram rail_urban rail rail_electric rail_fast ship" oneway="0"/>
    <type id="highway.unsurfaced" priority="1" numLanes="1" speed="8.33" disallow="tram rail_urban rail rail_electric rail_fast ship" oneway="0"/>
    <type id="railway.highspeed" priority="21" numLanes="1" speed="69.44" allow="rail_fast" oneway="1"/>
    <type id="railway.light_rail" priority="19" numLanes="1" speed="27.78" allow="rail_urban" oneway="1"/>
    <type id="railway.preserved" priority="16" numLanes="1" speed="27.78" allow="rail" oneway="1"/>
    <type id="railway.rail" priority="20" numLanes="1" speed="44.44" allow="rail" oneway="1"/>
    <type id="railway.subway" priority="18" numLanes="1" speed="27.78" allow="rail_urban" oneway="1"/>
    <type id="railway.tram" priority="17" numLanes="1" speed="13.89" allow="tram" oneway="1"/>

    <edge id=":1107474861_0" function="internal">
        <lane id=":1107474861_0_0" index="0" disallow="tram rail_urban rail rail_electric rail_fast ship" speed="3.65" length="4.67" shape="325.54,127.75 326.27,126.51 327.05,126.06 327.87,126.42 328.73,127.57"/>
    </edge>
    <edge id=":4860959671_0" function="internal">
        <lane id=":4860959671_0_0" index="0" allow="pedestrian delivery bicycle" speed="3.65" length="4.67" shape="224.22,61.93 225.05,60.75 225.86,60.37 226.65,60.78 227.42,62.00"/>
    </edge>
    <edge id=":4860959677_0" function="internal">
        <lane id=":4860959677_0_0" index="0" allow="pedestrian delivery bicycle" speed="3.65" length="4.67" shape="139.43,0.04 140.20,-1.18 140.99,-1.60 141.80,-1.22 142.63,-0.04"/>
    </edge>
    <edge id=":4860959679_0" function="internal">
        <lane id=":4860959679_0_0" index="0" allow="pedestrian delivery bicycle" speed="5.56" length="9.21" shape="222.18,223.15 221.69,232.35"/>
    </edge>
    <edge id=":4860959679_1" function="internal">
        <lane id=":4860959679_1_0" index="0" allow="pedestrian delivery bicycle" speed="5.56" length="10.07" shape="222.18,223.15 221.59,225.84 220.29,227.71 218.26,228.77 215.52,229.01"/>
    </edge>
    <edge id=":4860959679_2" function="internal">
        <lane id=":4860959679_2_0" index="0" allow="pedestrian delivery bicycle" speed="3.65" length="4.67" shape="222.18,223.15 221.29,224.29 220.46,224.63 219.69,224.17 218.98,222.92"/>
    </edge>
    <edge id=":4860959679_3" function="internal">
        <lane id=":4860959679_3_0" index="0" allow="pedestrian delivery bicycle" speed="5.06" length="4.98" shape="215.70,225.82 217.05,225.70 218.05,225.17 218.70,224.25 218.98,222.92"/>
    </edge>
    <edge id=":4860959679_4" function="internal">
        <lane id=":4860959679_4_0" index="0" allow="pedestrian delivery bicycle" speed="5.56" length="10.06" shape="215.70,225.82 218.39,226.35 220.29,227.62 221.39,229.62 221.69,232.35"/>
    </edge>
    <edge id=":4860959679_5" function="internal">
        <lane id=":4860959679_5_0" index="0" allow="pedestrian delivery bicycle" speed="3.65" length="4.67" shape="215.70,225.82 216.85,226.68 217.21,227.50 216.76,228.28 215.52,229.01"/>
    </edge>
    <edge id=":4860959679_6" function="internal">
        <lane id=":4860959679_6_0" index="0" allow="pedestrian delivery bicycle" speed="5.07" length="4.98" shape="218.49,232.24 218.34,230.89 217.80,229.90 216.86,229.27 215.52,229.01"/>
    </edge>
    <edge id=":4860959679_7" function="internal">
        <lane id=":4860959679_7_0" index="0" allow="pedestrian delivery bicycle" speed="5.56" length="9.34" shape="218.49,232.24 218.98,222.92"/>
    </edge>
    <edge id=":4860959679_8" function="internal">
        <lane id=":4860959679_8_0" index="0" allow="pedestrian delivery bicycle" speed="3.65" length="4.67" shape="218.49,232.24 219.33,231.07 220.14,230.70 220.93,231.12 221.69,232.35"/>
    </edge>
    <edge id=":4860959682_0" function="internal">
        <lane id=":4860959682_0_0" index="0" allow="pedestrian delivery bicycle" speed="5.00" length="5.05" shape="94.73,255.37 94.49,253.99 93.87,253.05 92.86,252.52 91.48,252.42"/>
    </edge>
    <edge id=":4860959682_1" function="internal">
        <lane id=":4860959682_1_0" index="0" allow="pedestrian delivery bicycle" speed="5.56" length="9.57" shape="94.73,255.37 94.41,245.80"/>
    </edge>
    <edge id=":4860959682_2" function="internal">
        <lane id=":4860959682_2_0" index="0" allow="pedestrian delivery bicycle" speed="5.56" length="10.32" shape="94.73,255.37 95.04,252.55 96.17,250.48 98.10,249.18 100.85,248.64"/>
    </edge>
    <edge id=":4860959682_3" function="internal">
        <lane id=":4860959682_3_0" index="0" allow="pedestrian delivery bicycle" speed="3.65" length="4.67" shape="94.73,255.37 95.49,254.14 96.28,253.72 97.09,254.10 97.92,255.28"/>
    </edge>
    <edge id=":4860959682_4" function="internal">
        <lane id=":4860959682_4_0" index="0" allow="pedestrian delivery bicycle" speed="5.18" length="5.25" shape="101.01,251.83 99.63,252.11 98.65,252.78 98.08,253.83 97.92,255.28"/>
    </edge>
    <edge id=":4860959682_5" function="internal">
        <lane id=":4860959682_5_0" index="0" allow="pedestrian delivery bicycle" speed="5.56" length="9.56" shape="101.01,251.83 91.48,252.42"/>
    </edge>
    <edge id=":4860959682_6" function="internal">
        <lane id=":4860959682_6_0" index="0" allow="pedestrian delivery bicycle" speed="5.56" length="10.23" shape="101.01,251.83 98.22,251.58 96.18,250.49 94.91,248.57 94.41,245.80"/>
    </edge>
    <edge id=":4860959682_7" function="internal">
        <lane id=":4860959682_7_0" index="0" allow="pedestrian delivery bicycle" speed="3.65" length="4.67" shape="101.01,251.83 99.77,251.10 99.33,250.32 99.69,249.50 100.85,248.64"/>
    </edge>
    <edge id=":4860959682_8" function="internal">
        <lane id=":4860959682_8_0" index="0" allow="pedestrian delivery bicycle" speed="5.03" length="5.02" shape="97.61,245.68 97.86,247.04 98.48,247.98 99.47,248.51 100.85,248.64"/>
    </edge>
    <edge id=":4860959682_9" function="internal">
        <lane id=":4860959682_9_0" index="0" allow="pedestrian delivery bicycle" speed="5.56" length="9.60" shape="97.61,245.68 97.92,255.28"/>
    </edge>
    <edge id=":4860959682_10" function="internal">
        <lane id=":4860959682_10_0" index="0" allow="pedestrian delivery bicycle" speed="5.56" length="10.32" shape="97.61,245.68 97.32,248.46 96.20,250.51 94.25,251.83 91.48,252.42"/>
    </edge>
    <edge id=":4860959682_11" function="internal">
        <lane id=":4860959682_11_0" index="0" allow="pedestrian delivery bicycle" speed="3.65" length="4.67" shape="97.61,245.68 96.85,246.91 96.07,247.34 95.26,246.97 94.41,245.80"/>
    </edge>
    <edge id=":4860959682_12" function="internal">
        <lane id=":4860959682_12_0" index="0" allow="pedestrian delivery bicycle" speed="5.21" length="5.28" shape="91.25,249.23 92.68,248.93 93.68,248.26 94.26,247.21 94.41,245.80"/>
    </edge>
    <edge id=":4860959682_13" function="internal">
        <lane id=":4860959682_13_0" index="0" allow="pedestrian delivery bicycle" speed="5.56" length="9.61" shape="91.25,249.23 100.85,248.64"/>
    </edge>
    <edge id=":4860959682_14" function="internal">
        <lane id=":4860959682_14_0" index="0" allow="pedestrian delivery bicycle" speed="5.56" length="10.37" shape="91.25,249.23 94.10,249.43 96.17,250.51 97.44,252.46 97.92,255.28"/>
    </edge>
    <edge id=":4860959682_15" function="internal">
        <lane id=":4860959682_15_0" index="0" allow="pedestrian delivery bicycle" speed="3.65" length="4.67" shape="91.25,249.23 92.50,249.94 92.96,250.71 92.62,251.54 91.48,252.42"/>
    </edge>
    <edge id=":4860959683_0" function="internal">
        <lane id=":4860959683_0_0" index="0" allow="pedestrian delivery bicycle" speed="5.05" length="4.99" shape="166.43,251.50 166.16,250.17 165.52,249.24 164.52,248.71 163.16,248.59"/>
    </edge>
    <edge id=":4860959683_1" function="internal">
        <lane id=":4860959683_1_0" index="0" allow="pedestrian delivery bicycle" speed="5.56" length="10.11" shape="166.43,251.50 166.65,248.75 167.70,246.71 169.57,245.40 172.27,244.81"/>
    </edge>
    <edge id=":4860959683_2" function="internal">
        <lane id=":4860959683_2_0" index="0" allow="pedestrian delivery bicycle" speed="3.65" length="4.67" shape="166.43,251.50 167.16,250.26 167.93,249.81 168.75,250.16 169.63,251.30"/>
    </edge>
    <edge id=":4860959683_3" function="internal">
        <lane id=":4860959683_3_0" index="0" allow="pedestrian delivery bicycle" speed="5.05" length="4.99" shape="172.51,248.00 171.17,248.29 170.25,248.94 169.73,249.94 169.63,251.30"/>
    </edge>
    <edge id=":4860959683_4" function="internal">
        <lane id=":4860959683_4_0" index="0" allow="pedestrian delivery bicycle" speed="5.56" length="9.37" shape="172.51,248.00 163.16,248.59"/>
    </edge>
    <edge id=":4860959683_5" function="internal">
        <lane id=":4860959683_5_0" index="0" allow="pedestrian delivery bicycle" speed="3.65" length="4.67" shape="172.51,248.00 171.25,247.29 170.79,246.52 171.13,245.69 172.27,244.81"/>
    </edge>
    <edge id=":4860959683_6" function="internal">
        <lane id=":4860959683_6_0" index="0" allow="pedestrian delivery bicycle" speed="5.56" length="9.30" shape="162.99,245.39 172.27,244.81"/>
    </edge>
    <edge id=":4860959683_7" function="internal">
        <lane id=":4860959683_7_0" index="0" allow="pedestrian delivery bicycle" speed="5.56" length="10.11" shape="162.99,245.39 165.75,245.64 167.77,246.71 169.06,248.59 169.63,251.30"/>
    </edge>
    <edge id=":4860959683_8" function="internal">
        <lane id=":4860959683_8_0" index="0" allow="pedestrian delivery bicycle" speed="3.65" length="4.67" shape="162.99,245.39 164.23,246.13 164.67,246.91 164.32,247.73 163.16,248.59"/>
    </edge>
    <edge id=":4860959684_0" function="internal">
        <lane id=":4860959684_0_0" index="0" allow="pedestrian delivery bicycle" speed="5.56" length="9.17" shape="169.03,296.35 168.69,287.19"/>
    </edge>
    <edge id=":4860959684_1" function="internal">
        <lane id=":4860959684_1_0" index="0" allow="pedestrian delivery bicycle" speed="5.56" length="10.36" shape="169.03,296.35 169.40,293.52 170.59,291.53 172.60,290.36 175.43,290.03"/>
    </edge>
    <edge id=":4860959684_2" function="internal">
        <lane id=":4860959684_2_0" index="0" allow="pedestrian delivery bicycle" speed="3.65" length="4.67" shape="169.03,296.35 169.81,295.14 170.61,294.73 171.41,295.12 172.23,296.31"/>
    </edge>
    <edge id=":4860959684_3" function="internal">
        <lane id=":4860959684_3_0" index="0" allow="pedestrian delivery bicycle" speed="5.00" length="5.05" shape="175.35,293.23 173.97,293.39 172.99,293.96 172.41,294.93 172.23,296.31"/>
    </edge>
    <edge id=":4860959684_4" function="internal">
        <lane id=":4860959684_4_0" index="0" allow="pedestrian delivery bicycle" speed="5.56" length="10.06" shape="175.35,293.23 172.57,292.79 170.54,291.64 169.24,289.77 168.69,287.19"/>
    </edge>
    <edge id=":4860959684_5" function="internal">
        <lane id=":4860959684_5_0" index="0" allow="pedestrian delivery bicycle" speed="3.65" length="4.67" shape="175.35,293.23 174.17,292.40 173.79,291.59 174.21,290.80 175.43,290.03"/>
    </edge>
    <edge id=":4860959684_6" function="internal">
        <lane id=":4860959684_6_0" index="0" allow="pedestrian delivery bicycle" speed="5.29" length="5.23" shape="171.88,286.99 172.17,288.28 172.86,289.23 173.95,289.81 175.43,290.03"/>
    </edge>
    <edge id=":4860959684_7" function="internal">
        <lane id=":4860959684_7_0" index="0" allow="pedestrian delivery bicycle" speed="5.56" length="9.33" shape="171.88,286.99 172.23,296.31"/>
    </edge>
    <edge id=":4860959684_8" function="internal">
        <lane id=":4860959684_8_0" index="0" allow="pedestrian delivery bicycle" speed="3.65" length="4.67" shape="171.88,286.99 171.16,288.23 170.39,288.68 169.56,288.33 168.69,287.19"/>
    </edge>
    <edge id=":4860959685_0" function="internal">
        <lane id=":4860959685_0_0" index="0" allow="pedestrian delivery bicycle" speed="3.65" length="4.67" shape="313.69,290.54 314.89,291.33 315.30,292.13 314.90,292.93 313.71,293.74"/>
    </edge>
    <edge id=":5377178336_0" function="internal">
        <lane id=":5377178336_0_0" index="0" disallow="tram rail_urban rail rail_electric rail_fast ship" speed="22.22" length="9.60" shape="183.01,432.42 173.86,435.28"/>
    </edge>
    <edge id=":5377178336_1" function="internal">
        <lane id=":5377178336_1_0" index="0" allow="pedestrian delivery bicycle" speed="6.74" length="3.50" shape="183.01,432.42 179.94,432.94 179.57,432.84"/>
    </edge>
    <edge id=":5377178336_7" function="internal">
        <lane id=":5377178336_7_0" index="0" allow="pedestrian delivery bicycle" speed="6.74" length="7.57" shape="179.57,432.84 177.61,432.30 176.01,430.48 175.15,427.48"/>
    </edge>
    <edge id=":5377178336_2" function="internal">
        <lane id=":5377178336_2_0" index="0" allow="pedestrian delivery bicycle" speed="4.87" length="5.22" shape="178.32,427.05 178.73,428.46 179.48,429.32 180.58,429.62 182.03,429.37"/>
    </edge>
    <edge id=":5377178336_3" function="internal">
        <lane id=":5377178336_3_0" index="0" allow="pedestrian delivery bicycle" speed="7.32" length="10.34" shape="178.32,427.05 178.38,430.05 177.66,432.42 176.15,434.16 173.86,435.28"/>
    </edge>
    <edge id=":5377178336_4" function="internal">
        <lane id=":5377178336_4_0" index="0" allow="pedestrian delivery bicycle" speed="3.65" length="4.67" shape="178.32,427.05 177.69,428.34 176.95,428.85 176.10,428.56 175.15,427.48"/>
    </edge>
    <edge id=":5377178336_5" function="internal">
        <lane id=":5377178336_5_0" index="0" allow="pedestrian delivery bicycle" speed="5.64" length="5.75" shape="172.94,432.22 174.11,431.61 174.87,430.62 175.21,429.24 175.15,427.48"/>
    </edge>
    <edge id=":5377178336_6" function="internal">
        <lane id=":5377178336_6_0" index="0" disallow="tram rail_urban rail rail_electric rail_fast ship" speed="22.22" length="9.53" shape="172.94,432.22 182.03,429.37"/>
    </edge>
    <edge id=":5512816944_0" function="internal">
        <lane id=":5512816944_0_0" index="0" allow="pedestrian delivery bicycle" speed="5.56" length="8.98" shape="148.77,224.79 146.11,224.60 144.29,224.51 142.47,224.49 139.80,224.52"/>
    </edge>
    <edge id=":5512816944_1" function="internal">
        <lane id=":5512816944_1_0" index="0" allow="pedestrian delivery bicycle" speed="5.56" length="9.95" shape="148.77,224.79 146.13,224.21 144.27,222.93 143.18,220.94 142.88,218.25"/>
    </edge>
    <edge id=":5512816944_2" function="internal">
        <lane id=":5512816944_2_0" index="0" allow="pedestrian delivery bicycle" speed="3.65" length="4.67" shape="148.77,224.79 147.63,223.91 147.30,223.08 147.75,222.31 149.01,221.60"/>
    </edge>
    <edge id=":5512816944_3" function="internal">
        <lane id=":5512816944_3_0" index="0" allow="pedestrian delivery bicycle" speed="5.10" length="4.96" shape="146.08,218.34 146.23,219.68 146.77,220.67 147.69,221.31 149.01,221.60"/>
    </edge>
    <edge id=":5512816944_4" function="internal">
        <lane id=":5512816944_4_0" index="0" allow="pedestrian delivery bicycle" speed="5.56" length="9.96" shape="146.08,218.34 145.62,221.01 144.42,222.93 142.48,224.10 139.80,224.52"/>
    </edge>
    <edge id=":5512816944_5" function="internal">
        <lane id=":5512816944_5_0" index="0" allow="pedestrian delivery bicycle" speed="3.65" length="4.67" shape="146.08,218.34 145.24,219.51 144.43,219.89 143.64,219.47 142.88,218.25"/>
    </edge>
    <edge id=":5512816944_6" function="internal">
        <lane id=":5512816944_6_0" index="0" allow="pedestrian delivery bicycle" speed="5.09" length="4.95" shape="139.76,221.32 141.09,221.11 142.06,220.53 142.65,219.58 142.88,218.25"/>
    </edge>
    <edge id=":5512816944_7" function="internal">
        <lane id=":5512816944_7_0" index="0" allow="pedestrian delivery bicycle" speed="5.56" length="9.26" shape="139.76,221.32 142.51,221.29 144.39,221.31 146.27,221.40 149.01,221.60"/>
    </edge>
    <edge id=":5512816944_8" function="internal">
        <lane id=":5512816944_8_0" index="0" allow="pedestrian delivery bicycle" speed="3.65" length="4.67" shape="139.76,221.32 140.97,222.10 141.38,222.90 140.99,223.70 139.80,224.52"/>
    </edge>
    <edge id=":5521717240_0" function="internal">
        <lane id=":5521717240_0_0" index="0" allow="pedestrian delivery bicycle" speed="3.65" length="4.67" shape="0.11,258.88 -1.14,258.17 -1.60,257.40 -1.25,256.57 -0.11,255.69"/>
    </edge>
    <edge id=":5521717241_0" function="internal">
        <lane id=":5521717241_0_0" index="0" allow="pedestrian delivery bicycle" speed="5.15" length="5.09" shape="217.45,297.54 217.24,296.14 216.65,295.12 215.69,294.50 214.36,294.26"/>
    </edge>
    <edge id=":5521717241_1" function="internal">
        <lane id=":5521717241_1_0" index="0" allow="pedestrian delivery bicycle" speed="5.56" length="10.21" shape="217.45,297.54 217.80,294.76 218.95,292.77 220.92,291.56 223.69,291.15"/>
    </edge>
    <edge id=":5521717241_2" function="internal">
        <lane id=":5521717241_2_0" index="0" allow="pedestrian delivery bicycle" speed="3.65" length="4.67" shape="217.45,297.54 218.23,296.33 219.02,295.92 219.83,296.30 220.65,297.49"/>
    </edge>
    <edge id=":5521717241_3" function="internal">
        <lane id=":5521717241_3_0" index="0" allow="pedestrian delivery bicycle" speed="5.03" length="5.01" shape="223.71,294.35 222.35,294.55 221.39,295.14 220.82,296.12 220.65,297.49"/>
    </edge>
    <edge id=":5521717241_4" function="internal">
        <lane id=":5521717241_4_0" index="0" allow="pedestrian delivery bicycle" speed="5.56" length="9.35" shape="223.71,294.35 214.36,294.26"/>
    </edge>
    <edge id=":5521717241_5" function="internal">
        <lane id=":5521717241_5_0" index="0" allow="pedestrian delivery bicycle" speed="3.65" length="4.67" shape="223.71,294.35 222.51,293.56 222.10,292.76 222.50,291.96 223.69,291.15"/>
    </edge>
    <edge id=":5521717241_6" function="internal">
        <lane id=":5521717241_6_0" index="0" allow="pedestrian delivery bicycle" speed="5.56" length="9.24" shape="214.45,291.06 223.69,291.15"/>
    </edge>
    <edge id=":5521717241_7" function="internal">
        <lane id=":5521717241_7_0" index="0" allow="pedestrian delivery bicycle" speed="5.56" length="10.09" shape="214.45,291.06 217.12,291.52 219.04,292.75 220.22,294.74 220.65,297.49"/>
    </edge>
    <edge id=":5521717241_8" function="internal">
        <lane id=":5521717241_8_0" index="0" allow="pedestrian delivery bicycle" speed="3.65" length="4.67" shape="214.45,291.06 215.63,291.89 216.01,292.70 215.59,293.49 214.36,294.26"/>
    </edge>
    <edge id=":5521717272_0" function="internal">
        <lane id=":5521717272_0_0" index="0" allow="pedestrian delivery bicycle" speed="5.56" length="1.45" shape="104.53,371.61 104.10,371.62 103.80,371.61 103.51,371.56 103.10,371.45"/>
    </edge>
    <edge id=":5521717272_1" function="internal">
        <lane id=":5521717272_1_0" index="0" allow="pedestrian delivery bicycle" speed="5.56" length="0.48" shape="103.94,368.36 104.08,368.40 104.18,368.41 104.28,368.42 104.42,368.41"/>
    </edge>
    <edge id=":5521717274_0" function="internal">
        <lane id=":5521717274_0_0" index="0" allow="pedestrian delivery bicycle" speed="5.07" length="4.98" shape="170.25,372.47 169.99,371.13 169.36,370.20 168.37,369.65 167.01,369.51"/>
    </edge>
    <edge id=":5521717274_1" function="internal">
        <lane id=":5521717274_1_0" index="0" allow="pedestrian delivery bicycle" speed="5.56" length="9.33" shape="170.25,372.47 169.93,363.14"/>
    </edge>
    <edge id=":5521717274_2" function="internal">
        <lane id=":5521717274_2_0" index="0" allow="pedestrian delivery bicycle" speed="3.65" length="4.67" shape="170.25,372.47 170.98,371.22 171.76,370.78 172.58,371.13 173.45,372.29"/>
    </edge>
    <edge id=":5521717274_3" function="internal">
        <lane id=":5521717274_3_0" index="0" allow="pedestrian delivery bicycle" speed="5.56" length="9.20" shape="173.13,363.09 173.45,372.29"/>
    </edge>
    <edge id=":5521717274_4" function="internal">
        <lane id=":5521717274_4_0" index="0" allow="pedestrian delivery bicycle" speed="5.56" length="10.06" shape="173.13,363.09 172.78,365.82 171.64,367.80 169.72,369.03 167.01,369.51"/>
    </edge>
    <edge id=":5521717274_5" function="internal">
        <lane id=":5521717274_5_0" index="0" allow="pedestrian delivery bicycle" speed="3.65" length="4.67" shape="173.13,363.09 172.35,364.31 171.55,364.72 170.75,364.33 169.93,363.14"/>
    </edge>
    <edge id=":5521717274_6" function="internal">
        <lane id=":5521717274_6_0" index="0" allow="pedestrian delivery bicycle" speed="5.06" length="4.98" shape="166.91,366.31 168.24,366.07 169.20,365.46 169.76,364.49 169.93,363.14"/>
    </edge>
    <edge id=":5521717274_7" function="internal">
        <lane id=":5521717274_7_0" index="0" allow="pedestrian delivery bicycle" speed="5.56" length="10.06" shape="166.91,366.31 169.64,366.60 171.64,367.70 172.91,369.59 173.45,372.29"/>
    </edge>
    <edge id=":5521717274_8" function="internal">
        <lane id=":5521717274_8_0" index="0" allow="pedestrian delivery bicycle" speed="3.65" length="4.67" shape="166.91,366.31 168.13,367.07 168.56,367.85 168.19,368.67 167.01,369.51"/>
    </edge>
    <edge id=":5521717276_0" function="internal">
        <lane id=":5521717276_0_0" index="0" allow="pedestrian delivery bicycle" speed="5.56" length="9.79" shape="172.66,408.95 171.73,399.21"/>
    </edge>
    <edge id=":5521717276_1" function="internal">
        <lane id=":5521717276_1_0" index="0" allow="pedestrian delivery bicycle" speed="5.56" length="10.74" shape="172.66,408.95 172.69,405.97 173.70,403.81 175.68,402.49 178.63,402.01"/>
    </edge>
    <edge id=":5521717276_2" function="internal">
        <lane id=":5521717276_2_0" index="0" allow="pedestrian delivery bicycle" speed="3.65" length="4.67" shape="172.66,408.95 173.30,407.66 174.04,407.16 174.88,407.45 175.83,408.53"/>
    </edge>
    <edge id=":5521717276_3" function="internal">
        <lane id=":5521717276_3_0" index="0" allow="pedestrian delivery bicycle" speed="4.93" length="5.14" shape="178.69,405.21 177.28,405.44 176.33,406.07 175.85,407.10 175.83,408.53"/>
    </edge>
    <edge id=":5521717276_4" function="internal">
        <lane id=":5521717276_4_0" index="0" allow="pedestrian delivery bicycle" speed="5.56" length="10.39" shape="178.69,405.21 175.77,404.88 173.64,403.77 172.29,401.88 171.73,399.21"/>
    </edge>
    <edge id=":5521717276_5" function="internal">
        <lane id=":5521717276_5_0" index="0" allow="pedestrian delivery bicycle" speed="3.65" length="4.67" shape="178.69,405.21 177.48,404.43 177.06,403.64 177.45,402.83 178.63,402.01"/>
    </edge>
    <edge id=":5521717276_6" function="internal">
        <lane id=":5521717276_6_0" index="0" allow="pedestrian delivery bicycle" speed="5.25" length="5.37" shape="174.92,399.04 175.22,400.36 175.93,401.30 177.07,401.85 178.63,402.01"/>
    </edge>
    <edge id=":5521717276_7" function="internal">
        <lane id=":5521717276_7_0" index="0" allow="pedestrian delivery bicycle" speed="5.56" length="9.54" shape="174.92,399.04 175.83,408.53"/>
    </edge>
    <edge id=":5521717276_8" function="internal">
        <lane id=":5521717276_8_0" index="0" allow="pedestrian delivery bicycle" speed="3.65" length="4.67" shape="174.92,399.04 174.19,400.28 173.41,400.72 172.59,400.37 171.73,399.21"/>
    </edge>
    <edge id=":8984503291_0" function="internal">
        <lane id=":8984503291_0_0" index="0" disallow="tram rail_urban rail rail_electric rail_fast ship" speed="3.65" length="4.67" shape="152.33,684.17 151.95,685.56 151.32,686.19 150.44,686.07 149.30,685.19"/>
    </edge>

    <edge id="-494049749#0" from="5377178336" to="1107474861" priority="10" type="highway.tertiary" shape="177.46,432.53 207.71,422.74 241.35,412.27 292.25,398.44 338.09,384.44 345.43,380.74 350.38,376.74 354.41,370.84 356.33,366.25 357.81,360.61 358.12,355.77 358.24,351.73 357.49,346.79 351.38,327.11 348.81,318.99 346.50,304.35 345.19,286.81 347.26,258.15 347.15,253.62 346.69,249.38 332.25,183.65 330.05,168.73 328.31,149.29 327.13,127.66">
        <lane id="-494049749#0_0" index="0" disallow="tram rail_urban rail rail_electric rail_fast ship" speed="22.22" length="429.32" shape="182.03,429.37 207.23,421.22 240.90,410.73 291.81,396.90 337.49,382.95 344.56,379.39 349.19,375.64 353.00,370.07 354.81,365.74 356.22,360.35 356.52,355.70 356.64,351.83 355.92,347.15 349.85,327.59 347.25,319.36 344.91,304.53 343.58,286.81 345.66,258.11 345.56,253.72 345.11,249.64 330.67,183.94 328.46,168.92 326.72,149.40 325.54,127.75"/>
    </edge>